* SPICE model NMOS in 4007 CMOS

.subckt 4007_NMOS D G S

M1 D G S S DMOS L=30u W=10u IC=0.0, 0.0, 0.0

.model DMOS NMOS
+	LEVEL=1
+	VTO=1.4
+	KP=111u
+	LAMBDA=0.01
+	TOX=1200n
.ends
