* SPICE model PMOS in 4007 CMOS

.subckt 4007_PMOS D G S

M D G S S MOSFET L=1E-6 W=1.0E-6 IC=0.0, 0.0, 0.0

.model MOSFET PMOS
+	CGSO=4.5E-10
+	CGDO=4.5E-10
+	CGBO=5.75E-10
+	RSH=800
+	NSUB=8E14
+	U0=225
.ends
